Version 4
SHEET 1 5544 1140
WIRE 1120 128 768 128
WIRE 576 144 352 144
WIRE 576 176 576 144
WIRE 768 176 768 128
WIRE 1120 176 1120 128
WIRE 1120 176 1024 176
WIRE 1216 176 1120 176
WIRE 1552 176 1376 176
WIRE 1792 176 1680 176
WIRE 1904 176 1792 176
WIRE 2048 176 1904 176
WIRE 2160 176 2048 176
WIRE 1792 208 1792 176
WIRE 1904 208 1904 176
WIRE 960 224 960 176
WIRE 960 224 928 224
WIRE 1280 224 1280 176
WIRE 1328 224 1280 224
WIRE 1376 224 1376 176
WIRE 1376 224 1328 224
WIRE 2048 224 2048 176
WIRE 1616 240 1616 224
WIRE 1728 240 1616 240
WIRE 1616 256 1616 240
WIRE 960 272 960 224
WIRE 1120 272 1024 272
WIRE 1216 272 1120 272
WIRE 1280 272 1280 224
WIRE 576 288 576 176
WIRE 768 288 768 176
WIRE 1728 304 1728 240
WIRE 1792 304 1792 288
WIRE 1792 304 1728 304
WIRE 1792 320 1792 304
WIRE 1376 352 1376 224
WIRE 352 368 352 144
WIRE 1936 368 1856 368
WIRE 2048 368 2048 288
WIRE 2048 368 2016 368
WIRE 1792 464 1792 416
WIRE 1904 464 1904 288
WIRE 928 528 928 224
WIRE 1200 528 928 528
WIRE 1376 528 1376 416
WIRE 1376 528 1200 528
WIRE 1616 528 1616 336
WIRE 1616 528 1376 528
WIRE 1792 528 1616 528
WIRE 1904 528 1792 528
WIRE 2160 528 1904 528
WIRE 352 560 352 448
WIRE 448 560 352 560
WIRE 576 560 576 368
WIRE 576 560 448 560
WIRE 768 560 768 368
WIRE 1120 560 1120 272
WIRE 1120 560 768 560
WIRE 448 576 448 560
WIRE 1328 768 1328 224
WIRE 1360 768 1328 768
WIRE 1520 768 1360 768
WIRE 1808 768 1648 768
WIRE 1904 768 1808 768
WIRE 2032 768 1904 768
WIRE 2128 768 2032 768
WIRE 1328 800 1328 768
WIRE 1808 800 1808 768
WIRE 1904 800 1904 768
WIRE 2128 816 2128 768
WIRE 2240 816 2128 816
WIRE 2032 832 2032 768
WIRE 2128 832 2128 816
WIRE 2240 880 2240 816
WIRE 1584 912 1584 816
WIRE 1808 912 1808 880
WIRE 1808 912 1584 912
WIRE 1360 928 1360 768
WIRE 1808 928 1808 912
WIRE 1584 944 1584 912
WIRE 2128 944 2128 912
WIRE 1952 976 1872 976
WIRE 2032 976 2032 896
WIRE 1808 1040 1808 1024
WIRE 1904 1040 1904 880
WIRE 2128 1056 2128 1024
WIRE 2240 1056 2240 944
WIRE 2240 1056 2128 1056
WIRE 1360 1120 1360 1008
WIRE 1584 1120 1584 1024
WIRE 1584 1120 1360 1120
WIRE 1808 1120 1808 1104
WIRE 1808 1120 1584 1120
WIRE 1904 1120 1904 1104
WIRE 1904 1120 1808 1120
WIRE 2128 1120 2128 1056
WIRE 2128 1120 1904 1120
WIRE 1200 1136 1200 528
WIRE 1360 1136 1360 1120
WIRE 1360 1136 1200 1136
FLAG 768 176 Vp_in
FLAG 2160 176 Vout
FLAG 448 576 0
FLAG 1616 528 0
FLAG 768 560 Vn_in
FLAG 576 176 V_main
FLAG 1376 224 V_rect
SYMBOL voltage 352 352 R0
WINDOW 3 -112 117 Left 2
WINDOW 123 0 0 Left 0
WINDOW 39 0 0 Left 0
SYMATTR Value SINE(0 325.266 50)
SYMATTR InstName V1
SYMBOL ind2 560 384 M180
WINDOW 0 36 80 Left 2
WINDOW 3 36 40 Left 2
SYMATTR InstName L1
SYMATTR Value 2000µ
SYMATTR Type ind
SYMATTR SpiceLine Rser=10m
SYMBOL ind2 784 384 R180
WINDOW 0 36 80 Left 2
WINDOW 3 36 40 Left 2
SYMATTR InstName L2
SYMATTR Value 4.7µ
SYMATTR Type ind
SYMATTR SpiceLine Rser=10m
SYMBOL diode 960 192 R270
WINDOW 0 32 32 VTop 2
WINDOW 3 0 32 VBottom 2
SYMATTR InstName D1
SYMATTR Value D1N4007
SYMBOL diode 1216 192 R270
WINDOW 0 32 32 VTop 2
WINDOW 3 0 32 VBottom 2
SYMATTR InstName D2
SYMATTR Value D1N4007
SYMBOL diode 960 288 R270
WINDOW 0 32 32 VTop 2
WINDOW 3 0 32 VBottom 2
SYMATTR InstName D3
SYMATTR Value D1N4007
SYMBOL diode 1216 288 R270
WINDOW 0 32 32 VTop 2
WINDOW 3 0 32 VBottom 2
SYMATTR InstName D4
SYMATTR Value D1N4007
SYMBOL cap 1360 352 R0
SYMATTR InstName C1
SYMATTR Value 4700µ
SYMBOL res 1600 240 R0
SYMATTR InstName R2
SYMATTR Value 1000
SYMBOL res 1776 192 R0
SYMATTR InstName R3
SYMATTR Value 220
SYMBOL zener 2064 288 R180
WINDOW 0 24 64 Left 2
WINDOW 3 24 0 Left 2
SYMATTR InstName D5
SYMBOL res 1888 192 R0
SYMATTR InstName R5
SYMATTR Value 2200
SYMBOL res 2032 352 R90
WINDOW 0 0 56 VBottom 2
WINDOW 3 32 56 VTop 2
SYMATTR InstName R6
SYMATTR Value 1000
SYMBOL LED 1776 464 R0
SYMATTR InstName D6
SYMBOL LED 1888 464 R0
SYMATTR InstName D7
SYMBOL npn 1856 320 M0
SYMATTR InstName BD139
SYMBOL reg3all 1680 192 R0
SYMATTR InstName U1
SYMATTR SpiceModel LM317
SYMBOL res 1344 912 R0
SYMATTR InstName R4
SYMATTR Value 1000
SYMBOL res 1568 928 R0
SYMATTR InstName R7
SYMATTR Value 790
SYMBOL res 1792 784 R0
SYMATTR InstName R8
SYMATTR Value 210
SYMBOL res 1888 784 R0
SYMATTR InstName R9
SYMATTR Value 2200
SYMBOL res 2048 960 R90
WINDOW 0 0 56 VBottom 2
WINDOW 3 32 56 VTop 2
SYMATTR InstName R10
SYMATTR Value 1000
SYMBOL npn 1872 928 M0
SYMATTR InstName NPN1
SYMATTR Value BD139
SYMBOL LED 1792 1040 R0
SYMATTR InstName D8
SYMBOL LED 1888 1040 R0
SYMATTR InstName D9
SYMBOL zener 2048 896 R180
WINDOW 0 24 64 Left 2
WINDOW 3 24 0 Left 2
SYMATTR InstName D10
SYMBOL reg3all 1648 784 R0
SYMATTR InstName U2
SYMATTR SpiceModel LM7812
SYMBOL voltage 2128 816 R0
WINDOW 123 0 0 Left 0
WINDOW 39 0 0 Left 0
SYMATTR InstName V2
SYMATTR Value 11.7
SYMBOL res 2112 928 R0
SYMATTR InstName R11
SYMATTR Value 0.1
SYMBOL cap 2224 880 R0
SYMATTR InstName C2
SYMATTR Value 1µ
TEXT 608 264 Left 2 !K L1 L2 0.98
TEXT 776 656 Left 2 !.model D1N4007 D(IS=7.02767n RS=0.0341512 N=1.80803 CJO=1e-11 VJ=0.7 M=0.5 BV=60 IBV=5e-08
TEXT 248 672 Left 2 !.tran 0.1
TEXT 768 704 Left 2 !.MODEL BD139 NPN ( IS=2.3985E-13 BF=244.9 NF=1.0 BR=78.11 NR=1.007 ISE=1.0471E-14 NE=1.2 ISC=1.9314E-11 NC=1.45 VAF=98.5 VAR=7.46 IKF=1.1863 IKR=0.1445 RB=2.14 RBM=0.001 IRB=0.031 RE=0.0832 RC=0.01 CJE=2.92702E-10 VJE=0.67412 MJE=0.3300 FC=0.5 CJC=4.8831E-11 VJC=0.5258 MJC=0.3928 XCJC=0.5287 XTB=1.1398 EG=1.2105 XTI=3.0 Vceo=80 Icrating=3 mfg=fairchild)
